Circuit: * Z:\home\maximilian\LTSpice\Coildriver\BootstrapDriver.asc

Direct Newton iteration failed to find .op point.  (Use ".option noopiter" to skip.)
Starting Gmin stepping
Gmin = 10
Gmin = 1.07374
Gmin = 0.115292
Gmin = 0.0123794
Gmin = 0.00132923
Gmin = 0.000142725
Gmin = 1.5325e-005
Gmin = 1.6455e-006
Gmin = 1.76685e-007
Gmin = 1.89714e-008
Gmin = 2.03704e-009
Gmin = 2.18725e-010
Gmin = 2.34854e-011
Gmin = 2.52173e-012
Gmin = 2.70769e-013
Gmin = 0
Gmin stepping succeeded in finding the operating point.


Date: Wed Nov 01 20:22:11 2023
Total elapsed time: 0.860 seconds.

tnom = 27
temp = 27
method = modified trap
totiter = 295861
traniter = 295443
tranpoints = 81557
accept = 59981
rejected = 21576
matrix size = 49
fillins = 41
solver = Normal
Matrix Compiler1: 5.37 KB object code size  0.6/0.3/[0.2]
Matrix Compiler2: off  [0.2]/0.4/0.3

