Circuit: * Z:\home\maximilian\LTSpice\Coildriver\Delay.asc

Warning: Multiple definitions of model "2scr375p" Type: BJT
Warning: Multiple definitions of model "bc857b" Type: BJT
Warning: Multiple definitions of model "bc847c" Type: BJT
Warning: Multiple definitions of model "bc847b" Type: BJT
.OP point found by inspection.

Date: Wed Nov 01 21:50:28 2023
Total elapsed time: 0.025 seconds.

tnom = 27
temp = 27
method = modified trap
totiter = 3034
traniter = 3034
tranpoints = 1487
accept = 1399
rejected = 88
matrix size = 8
fillins = 2
solver = Normal
Matrix Compiler1:      31 opcodes  0.2/[0.1]/0.1
Matrix Compiler2: 670 bytes object code size  0.1/0.1/[0.1]

