Circuit: * Z:\home\maximilian\LTSpice\Coildriver\Draft1.asc

.OP point found by inspection.

Date: Sat Nov 04 22:53:17 2023
Total elapsed time: 0.016 seconds.

tnom = 27
temp = 27
method = modified trap
totiter = 2112
traniter = 2112
tranpoints = 1057
accept = 1057
rejected = 0
matrix size = 2
fillins = 0
solver = Normal
Matrix Compiler1: 36 bytes object code size  0.0/0.0/[0.0]
Matrix Compiler2: 96 bytes object code size  0.0/0.0/[0.0]

