Circuit: * Z:\home\maximilian\LTSpice\Coildriver\BootstrapDriver.asc

Warning: Multiple definitions of model "2scr375p" Type: BJT
Warning: Multiple definitions of model "bc857b" Type: BJT
Warning: Multiple definitions of model "bc847c" Type: BJT
Warning: Multiple definitions of model "bc847b" Type: BJT
Direct Newton iteration for .op point succeeded.

Date: Wed Nov 01 22:01:48 2023
Total elapsed time: 1.114 seconds.

tnom = 27
temp = 27
method = modified trap
totiter = 293023
traniter = 292975
tranpoints = 81302
accept = 59696
rejected = 21606
matrix size = 49
fillins = 45
solver = Normal
Matrix Compiler1:     305 opcodes  1.0/[0.3]/0.4
Matrix Compiler2: 4.78 KB object code size  0.3/0.3/[0.3]

