Circuit: * Z:\home\maximilian\LTSpice\Coildriver\Draft1.asc

Direct Newton iteration failed to find .op point.  (Use ".option noopiter" to skip.)
Starting Gmin stepping
Gmin = 10
Gmin = 1.07374
Gmin = 0.115292
Gmin = 0.0123794
Gmin = 0.00132923
Gmin = 0.000142725
Gmin = 1.5325e-005
Gmin = 1.6455e-006
Gmin = 1.76685e-007
Gmin = 1.89714e-008
Gmin = 2.03704e-009
Gmin = 2.18725e-010
Gmin = 2.34854e-011
Gmin = 2.52173e-012
Gmin = 2.70769e-013
Terminal Gmin changed to 1e-014
vernier = 0.5
Gmin = 7.8867e-014
vernier = 0.666667
Gmin = 1.95256e-014
vernier = 0.333333
vernier = 0.444444
vernier = 0.222222
Gmin = 1.37018e-014
vernier = 0.111111
vernier = 0.0555555
vernier = 0.074074
Gmin = 1.28956e-014
vernier = 0.0987653
Gmin = 1.04143e-014
vernier = 0.131687
Terminal Gmin changed to 1e-015
vernier = 0.0658435
vernier = 0.0329218
vernier = 0.0164609
vernier = 0.00823044
vernier = 0.00411522
vernier = 0.00205761
vernier = 0.00102881
Gmin = 1.01634e-014
vernier = 0.000514403
Gmin = 0
Gmin stepping failed

Starting source stepping with srcstepmethod=0
Source Step = 3.0303%
Source Step = 3.46236%
Source Step = 3.49195%
Source Step = 3.52154%
Source Step = 3.55114%
Source Step = 3.58073%
vernier = 0.00146484
Source Step = 3.6118%
Source Step = 3.65619%
Source Step = 3.70058%
Source Step = 3.74497%
Source Step = 3.78936%
Source Step = 3.83375%
vernier = 0.00219727
Source Step = 3.90033%
Source Step = 3.96692%
Source Step = 4.0335%
Source Step = 4.10008%
Source Step = 4.16667%
vernier = 0.0032959
Source Step = 4.26321%
Source Step = 4.36309%
Source Step = 4.46296%
Source Step = 4.56284%
Source Step = 4.66272%
vernier = 0.00494385
Source Step = 4.80254%
Source Step = 4.95236%
Source Step = 5.10217%
Source Step = 5.25198%
Source Step = 5.4018%
vernier = 0.00741577
Source Step = 5.60404%
Source Step = 5.82876%
Source Step = 6.05349%
Source Step = 6.27821%
Source Step = 6.50293%
vernier = 0.0111237
Source Step = 6.79506%
Source Step = 7.13214%
Source Step = 7.46922%
Source Step = 7.8063%
Source Step = 8.14338%
vernier = 0.0166855
Source Step = 8.56474%
Source Step = 9.07036%
Source Step = 9.57598%
Source Step = 10.0816%
Source Step = 10.5872%
vernier = 0.0250282
Source Step = 11.194%
Source Step = 11.9524%
Source Step = 12.7108%
Source Step = 13.4693%
Source Step = 14.2277%
vernier = 0.0375423
Source Step = 15.0999%
Source Step = 16.2375%
Source Step = 17.3752%
Source Step = 18.5128%
Source Step = 19.6505%
vernier = 0.0563135
Source Step = 20.9019%
Source Step = 22.6084%
Source Step = 24.3148%
Source Step = 26.0213%
Source Step = 27.7278%
vernier = 0.0844703
Source Step = 29.5196%
Source Step = 32.0793%
Source Step = 34.639%
Source Step = 37.1987%
Source Step = 39.7584%
Source Step = 42.3181%
vernier = 0.126705
Source Step = 46.1576%
Source Step = 49.9972%
Source Step = 53.8368%
Source Step = 57.6763%
Source Step = 61.5159%
vernier = 0.190058
Source Step = 67.0832%
Source Step = 72.8426%
Source Step = 78.6019%
Source Step = 84.3612%
Source Step = 90.1206%
vernier = 0.285087
Source Step = 96.0239%
Source Step = 98.1836%
Source Step = 99.1555%
Source Step = 99.6955%
Source Step = 99.9047%
Source Step = 99.9384%
Source Step = 99.9722%
Source Step = 100%
Source Step = 100%
Source stepping succeeded in finding the operating point.


Date: Mon Nov 06 18:29:46 2023
Total elapsed time: 0.312 seconds.

tnom = 27
temp = 27
method = modified trap
totiter = 178347
traniter = 171290
tranpoints = 54025
accept = 39079
rejected = 14946
matrix size = 24
fillins = 9
solver = Normal
Matrix Compiler1: 1.70 KB object code size  0.2/0.1/[0.1]
Matrix Compiler2: off  [0.1]/0.2/0.2

