Circuit: * Z:\home\maximilian\LTSpice\Coildriver\Sim\OpenDrainDriver.asc

Direct Newton iteration failed to find .op point.  (Use ".option noopiter" to skip.)
Starting Gmin stepping
Gmin = 10
Gmin = 1.07374
Gmin = 0.115292
Gmin = 0.0123794
Gmin = 0.00132923
Gmin = 0.000142725
Gmin = 1.5325e-005
Gmin = 1.6455e-006
Gmin = 1.76685e-007
Gmin = 1.89714e-008
Gmin = 2.03704e-009
Gmin = 2.18725e-010
Gmin = 2.34854e-011
Gmin = 2.52173e-012
Gmin = 2.70769e-013
Gmin = 0
Gmin stepping succeeded in finding the operating point.


Date: Tue Nov 07 10:41:25 2023
Total elapsed time: 0.088 seconds.

tnom = 27
temp = 27
method = modified trap
totiter = 7918
traniter = 7495
tranpoints = 2238
accept = 1945
rejected = 293
matrix size = 29
fillins = 9
solver = Normal
Matrix Compiler1: 1.87 KB object code size  0.5/0.2/[0.1]
Matrix Compiler2: off  [0.2]/0.3/0.2

