Circuit: * Z:\home\maximilian\LTSpice\Coildriver\Sim\OpenCollectorDriver.asc

Direct Newton iteration for .op point succeeded.

Date: Tue Nov 07 08:27:45 2023
Total elapsed time: 4.344 seconds.

tnom = 27
temp = 27
method = modified trap
totiter = 2161798
traniter = 2161785
tranpoints = 288494
accept = 144385
rejected = 144109
matrix size = 19
fillins = 1
solver = Normal
Matrix Compiler1: 822 bytes object code size  0.2/0.1/[0.1]
Matrix Compiler2: off  [0.1]/0.2/0.2

