Circuit: * Z:\home\maximilian\LTSpice\Coildriver\CP_Sim\OpenDrainDriverCurrProtect.asc

Direct Newton iteration failed to find .op point.  (Use ".option noopiter" to skip.)
Starting Gmin stepping
Gmin = 10
Gmin = 1.07374
Gmin = 0.115292
Gmin = 0.0123794
Gmin = 0.00132923
Gmin = 0.000142725
Gmin = 1.5325e-005
Gmin = 1.6455e-006
Gmin = 1.76685e-007
Gmin = 1.89714e-008
Gmin = 2.03704e-009
Gmin = 2.18725e-010
Gmin = 2.34854e-011
Gmin = 2.52173e-012
Gmin = 2.70769e-013
Gmin = 0
Gmin stepping succeeded in finding the operating point.


Date: Tue Nov 07 19:34:58 2023
Total elapsed time: 2.015 seconds.

tnom = 27
temp = 27
method = modified trap
totiter = 283356
traniter = 282966
tranpoints = 93107
accept = 69817
rejected = 23290
matrix size = 50
fillins = 35
solver = Normal
Thread vector: 8.0/4.2[3] 2.1/2.0[1] 0.9/1.3[1] 0.1/0.7[1]  2592/500
Matrix Compiler1: 3.06 KB object code size  0.8/0.3/[0.3]
Matrix Compiler2: off  [0.3]/0.4/0.3

